AdventureDcTricyclesTours.com
AdventureLowCountry.com
AdventureNoob.com
AdventureOneSeries.com
AdventurePayoff.com
AdventuresInMarceline.com
AdventuresLowCountry.com
AdventuresOfAaronAndCraig.com
AdventuresOfTheLowCountry.com
AdverFax.com
AdverItsEonGoogle.com
AdversElling.com
AdversaryOps.com
AdvertScout.com
AdvertiseFb.com
AdvertiseInfb.com
AdvertiseLinkEdin.com
AdvertiseNgonGoogle.com
AdvertiseOnInstAgram.com
AdvertiseOnLinkEdin.com
AdvertiseOnyt.com
AdvertisingOnfb.com
AdvertisingOnyt.com
AdviceOnServiceMatters.com
AdviceRate.com
AdviceRating.com
AdvinCons.com
AdvisIoRaid.com
AdviseFish.com
AdvisedPContagious.com
AdvisersIntl.com
AdvisorElle.com
AdvisorHelpCenterNetwork.com
AdvisorsLess.com
AdvisorsTriState.com
AdvocaCiaeValor.com
AdvocaciamazzA.com
AdvocacyJournalism.com
AdvocatePf.com
AdvocatesBc.com
AdvocatesForTheIndustry.com
AdvocatesOmraj.com
AdvskSa.com
AdwareNinja.com
Adwpz.com
Adxprss.com
AdyElectrical.com
AdzRielsYafiq.com
AeDataScientists.com
AeDionNews.com
AeLandlordServices.com
AeStudioMsk.com
AecMart.com
AedruEw.com
AefGolf.com
Aefpz.com
AegisDriving.com
AegisNation.com
AegisOptimum.com
AeiJuridicAs.com
Aeipz.com
AejDesign.com
AekutRe.com
AemazAd.com
AeonBest.com
Aeopz.com
Aeppz.com
AerDoctor.com
AerTuVUs.com
AeracApex.com
AerasPure.com
AerationServiceSct.com
AerialAsana.com
AerialOutlaws.com
AerialYogaHawaii.com
AeriosInsurance.com
AeroBizUsa.com
AeroCoco.com
AeroDynaKlEen.com
AeroFren.com
AeroIlCommodities.com
AeroNitro.com
AeroOfLight.com
AeroStallions.com
AeroSugar.com
AeroTheory.com
AeroTru.com
AeroberIs.com
AeroplaneHire.com
AeroplaneRental.com
AerysPackTeKindia.com
AesLuo.com
AesPorta.com
Aespz.com
AesthetesMarketing.com
AestheticCenterDubai.com
AestheticMedSurgDerm.com
AestheticalLyraE.com
AestheticsLabel.com
AestheticsTexas.com
AetherApplications.com
AexaRealty.com
AeyPhoto.com
AfArmerStable.com
AfChealthandhumansvs.com
AfChoiceFood.com
AfChoiceFoods.com
AfDentFortwayne.com
AfFarLaFriet.com
AfFilerCo.com
AfForBableAutoBody.com
AfIlateKral.com
AfLasMedic.com
AfRameWindKits.com
AfRilozmuzik.com
AfShinHaftLangi.com
AfShinMoosaVi.com
AfaQalsYoLah.com
AfagosFemininO.com
AfamArchitects.com
AfameTlla.com
AfanHealth.com
AfaqiTSolution.com
AfbkapItal.com
AfcBeniFits.com
Afcakc.com
Afcubk.com
AfdStreet.com
AfdaGentUr.com
AfectivacomunicacIones.com
AfeezcotruckingLlc.com
AfeiBlog.com
AffBenimBet.com
AffIciAlMerch.com
AffImaxInc.com
AffOradableSmartShades.com
AffOrs.com
AffaOfficial.com
AffairBroad.com
AffairGames.com
AffektIA.com
AffiliateAdscripts.com
AffiliateBizOnfire.com
AffiliateConvert.com
AffiliateEducator.com
AffiliateFactors.com
AffiliateForm.com
AffiliateIncomeSites.com
AffiliateMarketingHelpdesk.com
AffiliateOnWheels.com
AffiliateQuote.com
AffiliateSeoGuy.com
AffiliateSgurus.com
AffinityBullmastiffs.com
AffinityDemeanor.com
AffinitySeguro.com
AffinityVoyages.com
AffirmationBeauties.com
AffordAbot.com
AffordableBlossoms.com
AffordableHouziNg.com
AffordableLiquidators.com
AffordableMovingLosangeles.com
AffordablePoolInstallationsAu.com
AffordableTruckingServices.com
Affpz.com
Afgio.com
Afhit.com
AfieldGallery.com
AfierHair.com
AfinAltest.com
AfinaElPiano.com
Aflity.com
Afppz.com
AfrWood.com
AfradLabs.com
AfraidToLoseControl.com
AfreEringTones.com
AfreshDrive.com
AfriMaga.com
AfricaBroad.com
AfricaChapel.com
AfricaDVance.com
AfricaJazzMusicFestival.com
AfricaShippingNews.com
AfricaTripAdvisor.com
AfricanBlockChainAssociation.com
AfricanBrandCongress.com
AfricanDaughterOfTheSoil.com
AfricanGoat.com
AfricanGoldenCat.com
AfricanProfessionals.com
AfricanTvOnline.com
AfricanWells.com
AfricanaStore.com
AfricanaWarenessDay.com
AfricanamericanHistoryScout.com
AfrikaExchange.com
AfroCapitol.com
AfroColleges.com
AfroDanceHungary.com
AfroDigitalHub.com
AfroDitIs.com
AfroFutureCarnival.com
AfroLego.com
AfroMedYa.com
AfroPixelGames.com
Afrzs.com
AfsInstallations.com
AfsarfUtbol.com
AftEyes.com
AftQatar.com
AftaInvestments.com
AfterDarkBp.com
AfterMyShower.com
AfterWhileDesignCompany.com
AfterschoolMart.com
Aftize.com
AftonGrillAndBar.com
AfusoCeramics.com
AfvbfVr.com
Afwpz.com
AfyonRehbercocukkulubu.com
AfzalLiving.com
AgAdvancedInc.com
AgAutoDiesel.com
AgBlandScape.com
AgCompAgny.com
AgFinancialConsultant.com
AgHayesAfar.com
AgImplements.com
AgIzdisbakimi.com
AgLaViet.com
AgNetenHOf.com
AgNutritionInternationalHq.com
AgOldShopping.com
AgQWeee.com
AgRosaLu.com
AgRoscoIn.com
AgRostandArt.com
AgRowNationIndia.com
AgSlashes.com
AgWarzone.com
AgainSanDeep.com
AgainWhen.com
AgainstTheTimes.com
AgalWitHaDream.com
AgamaDigital.com
AgandontersmicroBiome.com
Agapz.com
AgarFer.com
AgarwalCpm.com
AgarwalPacksIndia.com
AgatCapital.com
AgataPnieWsKa.com
AgataSArt.com
AgcDevelopment.com
AgcMaineRadio.com
Agcdj.com
Agcjr.com
AgdkeJe.com
AgeLeu.com
AgeLnegocioysalud.com
AgeOfDisruptions.com
AgePit.com
AgeRain.com
AgeTechHacks.com
AgeVintageAppliances.com
AgedCareFinder.com
AgeeMy.com
AgemWee.com
AgenCeAnonymeParis.com
AgenCeLesCoquettes.com
AgenCiAilumI.com
AgenCiAliveL.com
AgenCiAtenTacion.com
AgenCiaHyperion.com
AgenCiaMoody.com
AgenCiaNickname.com
AgenCiaNubes.com
AgenCiaPhoenix.com
AgenCiaPrev.com
AgenCianosSolar.com
AgenCiarbn.com
AgenCiatresPuntos.com
AgenDiaDdMedia.com
AgenGrosIran.com
AgenHanNochs.com
AgenInLite.com
AgenMorgen.com
AgenNasaKarawang.com
AgenOtSkincare.com
AgenPakaiANanak.com
AgenProperTijogJa.com
AgenSlotIboPlay.com
AgenZiaquInvest.com
AgencyNight.com
AgencyOfImpact.com
AgendaLibro.com
AgentBattle.com
AgentEfeg.com
AgentOpt.com
AgenteaDuaNeroCl.com
AgentesInMobilIrarios.com
AgentleWayYoga.com
AgentsGoneGreen.com
AgentsLotiBoPlay.com
AgentsQuiz.com
AgentsRail.com
Agfgw.com
AggApparel.com
AggajagGA.com
AggieFanGear.com
AggiornamentoAppPost.com
AggriTrade.com
Aggwc.com
AghemIo.com
AgileAndChange.com
AgileComMtech.com
AgileRef.com
AgileResilience.com
AgileSoftwareConsultancy.com
AgjzimpL.com
AglSupplyChaln.com
AglowPhotoAlbums.com
Agmjeer.com
AgmoeoE.com
AgnoStill.com
AgnosticAMystEria.com
AgonizingMarketAttention.com
Agopex.com
AgoraEcologicOs.com
AgoraVaimelhorar.com
Agorale.com
AgoraletterAria.com
Agpmx.com
AgrEenBaseball.com
AgrGestion.com
AgrOpartsExpert.com
AgrOpartsXpert.com
AgrWatch.com
AgrarianTrading.com
AgreatApproachtoahigherbid.com
AgreeMate.com
AgriTetra.com
AgricolaIglesias.com
AgricolaMackHuin.com
AgrigUnDem.com
AgrimEnsorGms.com
AgroMora.com
AgroNatureProducts.com
AgroTimPlus.com
AgronEwsUpdate.com
AgronixNets.com
AgronomicAsAnandRes.com
Agrowx.com
AgrozHucay.com
AgrroP.com
AgsFinanceIra.com
AgtechAus.com
AgtechOz.com
AguaDepaz.com
Aguau.com
AguilaAzulTurisMo.com
AguinhA.com
AgulwKz.com
Agunews.com
AgusdiAR.com
AgustinAbriZzi.com
AgustinAndEsteban.com
Agusun.com
AgwekwE.com
Agweoe.com
AgxCreative.com
AgxiEye.com
AgyRuth.com
AgzdsDE.com
AhAndMad.com
AhDesignCompany.com
AhFazbactiar.com
AhIstana.com
AhKdlyH.com
AhMedineJad.com
AhMetBayDartK.com
AhMetOsmanOzTurk.com
AhMetaIo.com
AhProjectManagement.com
AhRefSonic.com
AhRetratemitnoor.com
AhTsetIA.com
AhWJled.com
AhXinhua.com
AhasamSoft.com
AheadCoast.com
AheadGeek.com
AhealthylifeisforEveryone.com
AhecoBe.com
AhenTong.com
Ahgdst.com
Ahgybx.com
AhhChairs.com
Ahhfjy.com
Ahhkjy.com
AhhonvI.com
AhhyjXdp.com
AhigHerBidAuctionServices.com
AhimsaYogaStudio.com
AhistRoPor.com
AhjinhUiGroup.com
Ahjpz.com
Ahksnews.com
AhlaDrama.com
AhlcsZjd.com
Ahlicoo.com
AhmadiCollection.com
AhmedFit.com
AhmedHussInEy.com
AhmedSpot.com
AhmetcAvLan.com
AhmetkilicKaya.com
Ahmop.com
AhmyBowl.com
Ahngsc.com
Ahnpz.com
Ahnte.com
AholeOfCongress.com
AhorroBrillante.com
Ahqlgw.com
Ahqyj.com
Ahrcas.com
AhrenLanFor.com
Ahrfjx.com
Ahrif.com
Ahroir.com
AhsYearBucs.com
Ahsdq.com
Ahshgl.com
Ahshzg.com
Ahsssb.com
Ahtddy.com
Ahtmfc.com
Ahtstz.com
Ahupz.com
Ahusta.com
Ahwalgb.com
AhwatUkeEweed.com
AhwatUkeeAttorney.com
AhwatUkeeHousing.com
AhwatUkeeMarijuana.com
AhwatUkeedUi.com
AhwatUkeepOt.com
Ahwdf.com
Ahwxtf.com
AhxinwAng.com
AhxmlCc.com
AhyiheNg.com
AhyingSheNg.com
AhzheNgmao.com
AhzkcM.com
AiBiliBili.com
AiBlueBlue.com
AiChoKu.com
AiCloudEngineer.com
AiCloudEngineering.com
AiConSport.com
AiDataWater.com
AiDataYi.com
AiDidAsi.com
AiDidAu.com
AiDisbeliever.com
AiDoubter.com
AiFaster.com
AiHorsePortraits.com
AiIonsTore.com
AiJobOnline.com
AiJuntaNg.com
AiKanSp.com
AiLeadBuilder.com
AiLifeW.com
AiListBuilder.com
AiLuoen.com
AiMaos.com
AiModeKeJi.com
AiMorph.com
AiNashville.com
AiNongGu.com
AiOgreAt.com
AiPayPay.com
AiQifutuoyu.com
AiRajin.com
AiSenHaNjie.com
AiShanGgouVip.com
AiShangBaby.com
AiSkeptics.com
AiYiss.com
AiaiKay.com
AiaxPro.com
AibaofAng.com
Aibbbs.com
AibbyLtd.com
Aichf.com
AidBrothers.com
AidOuty.com
AidPeru.com
AidRent.com
AidSwift.com
AidViceMe.com
AidanTpigeonstourterelles.com
AideDaima.com
AierJt.com
AierLanCn.com
Aieym.com
Aigpz.com
AihuajItuan.com
AiimSpatNa.com
Aiirpur.com
AijiFang.com
AijiubAn.com
AikidoLosangeles.com
AikjdBo.com
AiksAuto.com
Aiksk.com
AilRickHoly.com
Ailbx.com
AileNinyeniuyesi.com
AileOulaCuisse.com
AileenZ.com
Ailpz.com
AiluKindergarten.com
AimBrew.com
AimCoServices.com
AimCracker.com
AimGenetics.com
AimHighAndTravel.com
AimManiac.com
AimRobo.com
AimaBrain.com
AimeiClub.com
AimeiShop.com
AimlJob.com
AimsAyaDecoration.com
AimsModel.com
AimsModels.com
AimsOda.com
AinRob.com
AinanFang.com
AioliSt.com
AiopIping.com
AiotFutureTech.com
AipJournal.com
AipaxAL.com
AipnxeM.com
AipvivG.com
AirAbiz.com
AirAlAndaLus.com
AirBearShirts.com
AirBenClima.com
AirBigBear.com
AirBnbDowntownHouston.com
AirBudgets.com
AirCleaningGutter.com
AirCruiseCourier.com
AirDynamicsCo.com
AirEdeService.com
AirEdeServices.com
AirEopy.com
AirEvComp.com
AirEvManagement.com
AirExpertOs.com
AirExpuro.com
AirFinanceGroup.com
AirGiven.com
AirGoatCovers.com
AirGoatGolf.com
AirLiens.com
AirMagSale.com
AirOSilver.com
AirOtirtanUsa.com
AirPlo.com
AirPorRhaber.com
AirPurifierForDentists.com
AirPurifiersForDentists.com
AirReceiverTank.com
AirShoesZoom.com
AirSterilIL.com
AirSterilMidwest.com
AirSuspensionAutoparts.com
AirSymbol.com
AirTekTrampolinePark.com
AirVentIL.com
AirVon.com
AirZir.com
AirbornePavers.com
AircoNkyuuentai.com
AirconditioningXperts.com
AirdrieFlyingMonkey.com
AirdropChat.com
AirdropLists.com
AireOwer.com
AirePacificoSas.com
AiredBlanco.com
AirflowOneSource.com
AirflowServiceTulsa.com
AirforceCoverup.com
AirfreightAvoidance.com
AirfreightCostsToomuch.com
AirfreightIsEvil.com
AirfreightNightmares.com
AirfreightWoes.com
AirfrieghtStinks.com
AirlineCruiseTour.com
AirmattressStore.com
AirplaneLaundry.com
AirplayLautsPreCher.com
AirportEmperorGuesthouse.com
AirportNear.com
AirwaysApp.com
AisFibreHiSpeed.com
AisHug.com
AisOui.com
AisSmktoficial.com
AisYies.com
Aisbtc.com
AishasWear.com
Aiskf.com
AislePerfectWedding.com
AislingEquestrians.com
AisyiIL.com
Aiszf.com
Aitfre.com
AitiHad.com
Aitmu.com
AiudaMedica.com
AiutAndo.com
AiviLeon.com
AiwaClinic.com
AiweeKmtl.com
AiweiShiji.com
AixingShui.com
AixuaNyp.com
AiyaMaxUn.com
AiyanaEnergy.com
Aiyly.com
Aizbds.com
AiziaHollywood.com
AjChemDryCarpetCleaning.com
AjDrive.com
AjExpressTravel.com
AjFirearmsCleaning.com
AjIsAilv.com
AjMeansSuccesses.com
AjMirMashAL.com
AjSmokesYouOut.com
AjStein.com
AjSyhg.com
AjabPost.com
AjaisBeautiSupply.com
Ajajeh.com
Ajamear.com
Ajamz.com
AjansBergama.com
AjarLi.com
AjaxChiropractic.com
AjayjiLka.com
Ajdlps.com
AjeedAje.com
AjenJoCine.com
Ajepz.com
Ajfhkc.com
AjimuYu.com
AjnfdmIk.com
Ajogada.com
Ajoshd.com
AjpCanvas.com
Ajppz.com
AjrfAre.com
AjsgRille.com
AjuMedical.com
AjudavidafinanceiraemDia.com
AjvayAdmin.com
AjvayJa.com
AjxjnJl.com
Ajxom.com
Ajxpz.com
Ajzpz.com
AkaAngie.com
AkaDolls.com
AkademiKfirSat.com
AkamStudio.com
AkanKshaMittAL.com
AkasPotiFy.com
AkashRawatAssociate.com
AkashaLuisa.com
AkayMarble.com
AkazeOfficial.com
AkazeaB.com
AkbBharatNews.com
AkbantIk.com
AkbarStorePuSat.com
AkcDreamlandPuppies.com
AkcabelEnerji.com
AkcayinsaatdekorasYon.com
AkdagyMm.com
AkdenizwebtasaRim.com
AkeelahsBeauty.com
AkekaLukSiam.com
AkenaNelson.com
AkenggWorks.com
AkerLye.com
Akfjh.com
Akgbkl.com
AkgdakID.com
AkhBarAnasa.com
AkhBarOffline.com
AkhalTexas.com
AkibKamal.com
AkidaInternational.com
AkihiRoueDa.com
Akimao.com
AkimoNx.com
AkinerlerGroup.com
AkiraProjects.com
AkiraSade.com
AkiwaKa.com
Akjsmh.com
Akjswp.com
Akklcw.com
Akkskl.com
AkkuSoto.com
Akleensweepvacuum.com
Aklhgd.com
Aklklb.com
Aklpz.com
Akmpz.com
AkmuPc.com
Akmuzs.com
AknariHome.com
Akoray.com
AkosirOni.com
AkpinarcIt.com
AkqhgX.com
AkronShipping.com
Akrotts.com
Akrqjs.com
AksGert.com
AksQKmU.com
AksabdIrekt.com
AkscmUx.com
AksfsMu.com
AkshgQy.com
AkshgTl.com
AkshthG.com
Akshx.com
Aksiti.com
AksjjSk.com
Aksjp.com
AksjsFp.com
AksjsGh.com
AksjsQt.com
AksjsYs.com
AkskqHg.com
AksllJs.com
AksmuWt.com
AksscJs.com
AkssmHg.com
AksswKl.com
AkswkmU.com
AkswtMu.com
Aksxsy.com
AkszAdd.com
AkuDrAkOr.com
AkuPets.com
AkubUking.com
AkubiSaseHat.com
Akufhb.com
AkulHotels.com
AkulaShop.com
Akulbd.com
AkwaMarket.com
Akxakl.com
Akxcjs.com
AkxklB.com
Akypz.com
Akysmy.com
Akyvoy.com
AkzVip.com
AlaDinLimited.com
AlaHadTrust.com
AlaMbresperimetralesdelsur.com
AlaMerestShop.com
AlaMiraGuzelLik.com
AlaMonaEg.com
AlaParService.com
AlaRaHtHr.com
AlaRodas.com
AlaShanTl.com
AlaShanTm.com
AlaaRayyaN.com
AlabamVendor.com
AlabamaDigest.com
AlacaTidondurmasi.com
AlacranBrewing.com
AladailEh.com
AladdinStores.com
AladeWillsUa.com
AladiNM.com
AlaedDinValves.com
AlaerPm.com
AlaessKer.com
AlahaBerry.com
AlahlIPlasticPipes.com
AlaiNatheEntertainA.com
AlaiaHChandra.com
AlainBeginAutos.com
AlainGibson.com
AlainLiBeaut.com
AlainMattHey.com
AlaireFm.com
AlakaBerShop.com
AlambProduction.com
AlamoMobileTour.com
AlamodeMe.com
AlampOr.com
AlanHerriot.com
AlanLiDancing.com
AlanMorelLi.com
AlanTullyMusic.com
AlanasSouthernPastries.com
AlansAutoGlassMonterey.com
AlanyaEksKursiI.com
AlanyaKristalCam.com
Alapz.com
AlaqsHoIndonesia.com
AlaraOrBayDesigns.com
AlarmsInstallers.com
AlarzWine.com
AlasHandy.com
AlaskaIpro.com
AlaskaSalvage.com
AlaskaWonderland.com
AlataEcuador.com
AlataPeru.com
AlawanAlwatAni.com
Alawgo.com
AlbEnateKsTil.com
AlbNoon.com
AlbPlasteringAndRendering.com
AlbaDiaBeautysalon.com
AlbanyCountyFire.com
AlbanyScavengerHunt.com
AlbbQuan.com
AlberGueSanroque.com
AlberghiAVenezia.com
AlbertBoyleDesign.com
AlbertaExpansionTeam.com
AlbertaIndustries.com
AlbertaPermaculture.com
AlbertaRgueta.com
AlbertoGarageDoorsInsulation.com
AlbertoRuizConstruction.com
AlbiBash.com
AlbiJak.com
AlbmzFo.com
AlboranPartners.com
Albrkl.com
AlbumReputation.com
AlbumReputationTaylorSwift.com
AlburquerqueusedCars.com
AlbyLiberty.com
AlbyTrinity.com
AlbyTwinsGroup.com
AlcesTates.com
AlchemistsIncorporated.com
AlchemizedFreedom.com
AlchemyAgronomics.com
AlchemyEliQuid.com
AlchemyRoma.com
AlciLindRo.com
Alcnb.com
AlconZone.com
AlcoverConstruction.com
AldazZa.com
Aldcode.com
AldeaPubliciDad.com
AldilaDelleNote.com
AldiooR.com
AldrinSmartShop.com
AldunYaLlc.com
AleOneMusic.com
AlePena.com
AleTailP.com
AleTown.com
AleVinesHostel.com
AleafBrand.com
AlebhMu.com
AlebmHg.com
AlebrHg.com
AlecArvalhomakesofc.com
AlecHowardPhoto.com
AlecMann.com
AleccMu.com
AlecfHg.com
AleedHg.com
AleedaInc.com
AleeoNx.com
AlegRiaaAa.com
AleguEv.com
AlehgKc.com
AlehgMm.com
AlehlKl.com
AlehzHg.com
AlejandraEcheverriseguros.com
AlejandraHermosa.com
AlejandroAndKarina.com
AlejandroRiDoSz.com
AlejandroRod.com
AlejandroRodriguezR.com
AlejandroRuizs.com
AlejkJs.com
AlejqKl.com
AlekEdibleOil.com
AleklGq.com
AleklJy.com
AleksASummer.com
AleksandrAHasan.com
Alelmut.com
AlelwHg.com
AlemPreParAtoria.com
AlemResortes.com
AlemanOnlineQuranAcademy.com
AlemanRice.com
Alemg.com
AlemuCw.com
AlenaMcnamara.com
AlenaWear.com
AlenfHg.com
Alepz.com
AleqqKl.com
AlerPay.com
AlertaCiudadE.com
AlertaGeek.com
AlertaSmoviles.com
AlertedGeDanger.com
AlertsIvy.com
AlertsMill.com
AlertsNM.com
AlertsShip.com
AlesiaBatiste.com
AlessSo.com
AlessandraNToniaPortfolio.com
AlessandroLisboa.com
AletIkAa.com
AletaiItjy.com
AletaiTc.com
AletaiZw.com
AletaiwZ.com
AletaizZ.com
AlexAguayo.com
AlexAmalaMadera.com
AlexAndHeidi.com
AlexBoldea.com
AlexELuana.com
AlexEzMarEy.com
AlexJoNsie.com
AlexMauer.com
AlexMotorSales.com
AlexRieber.com
AlexTeek.com
AlexUsleSha.com
AlexaNdshwEta.com
AlexaStanley.com
AlexaSummer.com
AlexanderAdegboYe.com
AlexanderBurgos.com
AlexanderLeigh.com
AlexanderTsekoff.com
AlexandraAirth.com
AlexandraAndJasonHernandez.com
AlexandraElizabethJohnson.com
AlexandraKaraOlaNov.com
AlexandrasImages.com
AlexandreMartinHao.com
AlexandreStRoukoFf.com
AlexandriaBankruptcy.com
AlexandriaCondoPro.com
AlexandriaHolidayMarket.com
AlexandriaRealtors.com
AlexeiMedia.com
AlexisInteriorAndExterior.com
AlexisLimosInc.com
AlexisSophia.com
AlexsGalaxy.com
AleynaAio.com
AlfaRena.com
AlfaRomeoStPetersburgBlog.com
AlfaZzaShop.com
AlfakhrsupplyfrozenmeatCompany.com
AlfieApp.com
Alfiil.com
AlfonsCorrales.com
AlfonsoMartinezPoza.com
AlfordMeadows.com
AlfozAnMetals.com
AlfredProject.com
AlgHadRa.com
AlganCo.com
AlgeriesMS.com
Alglj.com
AlgoHeatMap.com
AlgonquinResorts.com
AlgorItManusAntara.com
AlhaJars.com
AlhabRa.com
AliAlRuBayee.com
AliAmbalaJ.com
AliExpressLashes.com
AliFinesAndAng.com
AliGunEshoca.com
AliHue.com
AliJana.com
AliJenaBan.com
AliPalumbo.com
AliPate.com
AliPutian.com
AliRemote.com
AliSakeAtti.com
AliViaTuVida.com
AliVineX.com
AliaDasenpositivo.com
AliahWoodSon.com
AlibabaBazzar.com
AlibabaDepot.com
AlibabaGrenada.com
AlibabaLashes.com
AlibabaOutlets.com
AlibeeWorld.com
AlibeyGiHomes.com
AlibiVentures.com
AlicJaszUlc.com
AliceAlexandraSofia.com
AliceAloevera.com
AliceBriot.com
AliceDonovanHebb.com
AliceGolter.com
AliceJegheLian.com
AliceLodgeBackpack.com
AlicesLuty.com
AliciaAttractionsBoutique.com
AliciaRiley.com
Alicyy.com
AlidaOtel.com
AlienGrow.com
AlienGrowerZ.com
AlifeJoyAndGrace.com
Aligc.com
AlightSociety.com
AlignThrive.com
AlignedHealthCollective.com
AlignedReInvestments.com
AlignerClassTr.com
AligningValues.com
AlignmentNow.com
AlikkalpanchAloha.com
AlilRoadHelp.com
AlimFinancial.com
AlimeHaHospital.com
AlimentOsdd.com
AlimentOsnaff.com
AlinaHoldings.com
AlinaLexie.com
AlinaMusicieNne.com
AlindRoPromo.com
AlineBakes.com
AlineSa.com
AlineesCandelaRI.com
Alinoass.com
Aliopw.com
AlipeyAdeh.com
AlireaZinc.com
AlisCraftyStudio.com
AlisaEed.com
AlisanEurope.com
AliscoExport.com
AlishaSws.com
AlisonDamaTo.com
AlisonHenkel.com
AlisonLewisSocialMedia.com
AlisonWinFreePickrell.com
AlisonsAnimals.com
AlistEstatesInc.com
AlistStatus.com
AlistUniversity.com
AlisterUniversity.com
AlittleBrooklynKitchen.com
AlittleSomethingByLee.com
AlittleSteppingStool.com
AliveActually.com
AliveMain.com
AlivePortraits.com
AliveYard.com
AlivesInBalance.com
AliviCoaching.com
AliyaAns.com
Aliyunco.com
AliyuzaConcept.com
AlkBurnout.com
AlkaLeaf.com
AlkaRamMobiles.com
AlkaWarIt.com
Alkalh.com
AlkalineVeganHerbs.com
AlkalineVeganRecipes.com
AlkatRavels.com
Alkdepo.com
AlkemeSoap.com
AlkenRath.com
AlkerElectric.com
AlkesDara.com
AlkinAnahGroup.com
Alklsu.com
AlkolDunyasi.com
Alkpz.com
AllAboutJaxHomes.com
AllAboutMallOr.com
AllAboutMarble.com
AllAboutNiche.com
AllAboutSouvenirs.com
AllAboutTopor.com
AllAccessChauffeurs.com
AllAfarTherapy.com
AllAgeMoneymaking.com
AllAirdrops.com
AllAmerikaN.com
AllBizTraining.com
AllBizVideo.com
AllBizVoiceover.com
AllBlackstreetWear.com
AllBoutChickens.com
AllBoutMine.com
AllBrandBag.com
AllBrandWear.com
AllBrevardHomesForsale.com
AllButtHeWater.com
AllBuyBest.com
AllBuyToys.com
AllCFood.com
AllCareersNetwork.com
AllCitySpace.com
AllCollegesOnline.com
AllConnectSoft.com
AllDayDeliveryService.com
AllDayUltra.com
AllDesiresMen.com
AllDirectGolfNow.com
AllDomainSolutions.com
AllDomesticSerIces.com
AllDrinkGames.com
AllEarsPopcorn.com
AllFamePhotos.com
AllFames.com
AllFastECommerce.com
AllFightVideos.com
AllFilmEquipment.com
AllFlan.com
AllFlasks.com
AllFocusing.com
AllForPaw.com
AllForYouriphOne.com
AllFourEnterprises.com
AllGamingVip.com
AllGoudinitert.com
AllGreenGuitars.com
AllHailTheTreadMighty.com
AllHolidayGift.com
AllHomeWares.com
AllHotelsNear.com
AllIanzHealthinsurancePackage.com
AllIanzPortal.com
AllIbm.com
AllIconPharma.com
AllIfesOn.com
AllIiedChem.com
AllInforAllTheKids.com
AllInonePcFix.com
AllInstallEasy.com
AllJasminGrows.com
AllJoVintage.com
AllKhat.com
AllMedNurseResumes.com
AllMgmt.com
AllMyLinksLiveStream.com
AllNonEpa.com
AllNose.com
AllOcrat.com
AllOfGlobal.com
AllOfMetals.com
AllOneArk.com
AllOraManagement.com
AllOurTomorrowsMovie.com
AllOutVegas.com
AllPaperStraws.com
AllPcAse.com
AllPhonesHouston.com
AllPlaceTechnology.com
AllPoolPros.com
AllProAutoTX.com
AllProBuyers.com
AllProSpeed.com
AllProWebs.com
AllPulu.com
AllQualityCon.com
AllQualityCons.com
AllRene.com
AllSaintsBay.com
AllSaintsLive.com
AllSalesRealestate.com
AllScorched.com
AllSeasonsRvRentalsLlc.com
AllSeasonsUrban.com
AllSeattlePropertySolutions.com
AllSendEmails.com
AllSkateShop.com
AllSkinMattersCosmetics.com
AllSmsCom.com
AllSportFresh.com
AllSportSheets.com
AllStarsCom.com
AllStyleSigns.com
AllSupportsRx.com
AllTaxesSolution.com
AllTheColorSmatter.com
AllTheCoolMemes.com
AllTheFunds.com
AllTheFunnyMemes.com
AllTheWildThings.com
AllThingSill.com
AllThingsAthena.com
AllThingsBeautyServices.com
AllThingsCircus.com
AllThumbsDesign.com
AllTierIs.com
AllUmoir.com
AllUsCell.com
AllUvEverWanted.com
AllWellFabricators.com
AllWholesaleDeals.com
AllWillGo.com
AllWjt.com
AllWoodRefacing.com
AllYandhi.com
AllZeus.com
AllanAhSkinResults.com
AllanAhSkinTransform.com
AllanAhSkinYouth.com
AllanByTh.com
AllanDreamHairAndBeautysalon.com
AllanHeller.com
AllanaNdvonnesisson.com
AllayStore.com
AllayerLimited.com
AlldogscanlearnnewTricks.com
AllegianceAirFL.com
AllegraNashville.com
AllegroBrewing.com
AllenAllenYenYen.com
AllenAndSonsTrucking.com
AllenAwards.com
AllenHolt.com
AllenProductsInc.com
AllensBridal.com
AllensChollSpecialtyServices.com
AllensDiving.com
AllerConsult.com
AllerConsulting.com
AllesFuersbuero.com
AlleviateHomeMind.com
AlleyAgateMarbles.com
AllhallowsWed.com
AlliNrc.com
AllianceAngloNormanDE.com
AllianceCharteredBank.com
AllianceGeekSquad.com
AllianceHomeSquad.com
AllianceRatushNyak.com
AllianceSr.com
AllianceXnStratum.com
AlliantAthome.com
AlliantZfcu.com
AllicinCare.com
AllieAndFosterMusic.com
AllieBoy.com
AllieDeOffice.com
AllieGrowsGray.com
AlliedFenceOfGreensboro.com
AlliedHandyman.com
AlliedHeritageTrust.com
AlliedLawn.com
AllinAutomotiveKi.com
AllinImages.com
AllinInvoice.com
AllinTechCo.com
AllisTicdeekon.com
AllisonJaneHolistics.com
AllisonShoemakersPortfolio.com
AlloverFootball.com
AllowNurse.com
AlloyVenture.com
AllproapplianceservicelehighValley.com
AllrightGo.com
AllroundRover.com
AllspicedGrill.com
AllureIva.com
AllureSilkBd.com
AllureZaw.com
AllureesAccessories.com
AlluringPlanet.com
AlmCorner.com
AlmInnovativeConcepts.com
AlmaBebeEstepa.com
AlmaBebesEstepa.com
AlmaBerry.com
AlmaPulveris.com
AlmaSlaha.com
AlmacenesAmericanos.com
AlmacenesMaria.com
AlmadenEgocios.com
AlmeidaConstructions.com
AlmeriaQuiRomasAje.com
AlmightyExtracts.com
AlmightyNifty.com
AlmiraHs.com
AlmiraistEk.com
Almoeg.com
AlmondDidier.com
AlmproPertyPreservation.com
Almpz.com
Almrmt.com
AlmuiyIdd.com
Almuvr.com
AlnamriCas.com
AlnintTe.com
Alnorex.com
AloNut.com
AloTagLaTo.com
AloeVodka.com
AloefBeverage.com
AlohaGodMovement.com
AlohaMerchandise.com
AlohaPartyMix.com
AlohaPicnicCompany.com
AlohaSf.com
AlohaShirtClub.com
AlojadasViaGens.com
AlokPackaging.com
AlongCameaBaby.com
AloraLove.com
AlorsLA.com
AlotaiBiteCh.com
AlotinHyeu.com
AloweTN.com
AlpBusinessPrintingJackson.com
AlpRantemizlik.com
AlpacaFashionUsa.com
AlpahaCell.com
AlpavNtur.com
AlpenDesignbymykima.com
AlpenGlowsNC.com
AlperEnyolyardim.com
AlphAircraft.com
AlphaBForms.com
AlphaBikeZ.com
AlphaBiscuit.com
AlphaDataOnline.com
AlphaDesignUsa.com
AlphaDesignsUk.com
AlphaDogLiveTraining.com
AlphaDominate.com
AlphaFitPlus.com
AlphaFitVita.com
AlphaFitVital.com
AlphaForensic.com
AlphaForensicAccountants.com
AlphaGeniusCentre.com
AlphaGoPlus.com
AlphaHospitalityGroup.com
AlphaInterGratiOn.com
AlphaMedicalSearch.com
AlphaNeoBoss.com
AlphaPcPlan.com
AlphaRoiGroup.com
AlphaShadePh.com
AlphaTradeCanArias.com
AlphabetInaboxyardsignetc.com
AlphabetPaintings.com
AlphabeticKS.com
AlphonsoTaylor.com
AlphuriankingComic.com
Alpiks.com
AlpineChoppers.com
AlpineHolidaysGlobal.com
AlpineRaceConsulting.com
Alpqjs.com
AlprImage.com
AlpsIbCompany.com
AlptRaumTheater.com
AlpuCasa.com
Alpvio.com
Alpwhg.com
AlquilaryVender.com
AlrCams.com
AlrmjS.com
AlroeYaVideo.com
Alroua.com
AlsAhraAdvertising.com
AlsEhahwljmal.com
AlsMgbjs.com
AlsMjsc.com
AlsMwthg.com
AlsMygjs.com
AlsMzkly.com
AlsaeedTec.com
AlsaigHPrint.com
Alshajar.com
AlshakhAzam.com
AlsmhbJs.com
AlsmjaHg.com
AlsmjsXc.com
AlsmjsZy.com
AlsmklBg.com
AlsmklFt.com
AlsmklpG.com
AlsmlaMu.com
AlsmmuGl.com
AlsmmuSr.com
AlsmmuyZ.com
AlsmqKlc.com
AlsoAsk.com
AlsolTiara.com
AltAdTagaytay.com
AltAlenTe.com
AltAlomaNotary.com
AltAmatUm.com
AltCoIsnWebsite.com
AltCoinYatirim.com
AltDeInfinOr.com
AltEllerIntet.com
AltErnaIt.com
AltErnaPalabra.com
AltErnaTiftoGel.com
AltExtraDes.com
AltHeor.com
AltRaMag.com
AltSolutConsult.com
AltStatisticalConsult.com
AltTrixMps.com
AltYahooComments.com
AltaCars.com
AltaWarpAndWeft.com
AltaiBalanceCom.com
AltavistaHomebuyers.com
AltayCyclingTeam.com
AlterSonicSound.com
AlterYourBody.com
AlteredPerceptionArts.com
AlteredSymmetry.com
AlteregoCanine.com
AlternateFrequencyRadio.com
AlternatePlus.com
AlternativeNewspaper.com
AlternativePlana.com
AlternativelyFeStyle.com
Altfk.com
AltieRiNews.com
AltiplanoInMobilAria.com
AltisMedicare.com
AltitudeDen.com
AltitudesCe.com
AltoGroupECapital.com
AltoSystemsCoaching.com
AltoVenturesGroup.com
AltosDeLacarolina.com
AltunAylarkahvalti.com
AluVialSa.com
AludaP.com
AludaPDesign.com
Aluenews.com
AluminAamore.com
AluminumBearStatues.com
AluminumElkStatues.com
AluminumHorseStatues.com
AluminumPiers.com
AlumniDi.com
AlumniRaffles.com
AlurAmanaGedit.com
AlusVision.com
AluteCuae.com
AluvImena.com
AlvFinancialAbundance.com
AlvaBanking.com
AlvarezAlonso.com
AlvarezUpholstery.com
AlvaroColLas.com
AlvasDreamCloset.com
AlveoCorp.com
AlwatHiqDubai.com
AlwayJoy.com
AlwayLax.com
AlwaysAndForeverCasanova.com
AlwaysAndForeverPhotography.com
AlwaysBeachy.com
AlwaysBeu.com
AlwaysBoardCo.com
AlwaysDefi.com
AlwaysGoesBang.com
AlwaysMakeMoves.com
AlwaysPowerUp.com
AlwaysStayBreadedEnt.com
AlwaysStop.com
AlweErinEho.com
Alxgal.com
Alxjsb.com
Alxpz.com
AlyHerrera.com
AlyXHardy.com
AlyaBanyo.com
Alyooo.com
AlysaNdTodd.com
AlyssaAJackson.com
AlyssaLynnWrites.com
AlzaherpolyClinic.com
AlzaobrasyservlClos.com
AlzehEimer.com
AlzinMotion.com
AmAdministration.com
AmAretteOfficial.com
AmArteAti.com
AmAstateFair.com
AmAtarsHu.com
AmAthomeHealthcareServicesLlc.com
AmBienOnlineBuyCheap.com
AmBreeNzaina.com
AmByteK.com
AmCorporationBd.com
AmEmoryCaptured.com
AmEmorySavedTaxidermy.com
AmFinOm.com
AmFlanes.com
AmGenRewards.com
AmGoodies.com
AmGreenTech.com
AmGroupsRl.com
AmHintErests.com
AmLiveCam.com
AmLovely.com
AmManagementGroup.com
AmMexMS.com
AmOtherSlov.com
AmPeriOnLab.com
AmPlusMedia.com
AmRendRaChemicals.com
AmRisa.com
AmRnAiemSchool.com
AmSome.com
AmSurAK.com
AmTexPrints.com
AmUyqx.com
AmVideoClassifiedsFontana.com
AmWomenCare.com
AmaBiotics.com
AmaChoise.com
AmaDublines.com
AmaMaiSestetIca.com
AmaPastAi.com
AmaPolaStudioWeb.com
AmaQuin.com
AmaSpace.com
AmaTeenInc.com
AmaalaVillas.com
AmaalaYacht.com
AmaalaYachts.com
AmaanInvestments.com
Amablax.com
AmaderMadhupur.com
AmagiCfOils.com
AmagicalnightintheDesert.com
AmaiaWine.com
AmakaFoundation.com
AmalAlMarrIfst.com
AmalLeo.com
AmalfiProduction.com
AmalfiProductions.com
AmanComputerSldh.com
AmandaFerraZ.com
AmandaHarrisHomes.com
AmandaJGordonAhimsa.com
AmandaMenas.com
AmandasDevries.com
AmandasPostConstructionCleaningServices.com
AmaniHerring.com
AmarDeepATherapy.com
AmarHaChem.com
AmarOkhk.com
AmarQs.com
AmarReOriginal.com
AmarResamoreficaces.com
AmarResyhechizoseternos.com
AmaraDante.com
AmarilloVeinDoctor.com
AmarisAllureBeauty.com
AmarisCareHome.com
AmaryllisWomenBydesign.com
AmasyaWebtaSarim.com
AmateurModelsPorn.com
AmateurMultimedia.com
AmateurSofBenelux.com
AmateurXxxFree.com
AmateursYo.com
AmayaFlooringVA.com
AmayaPropertyGroupHomes.com
AmazingBDesigns.com
AmazingDealsWorld.com
AmazingHinge.com
AmazingOnlinePromo.com
AmazingRimRepair.com
AmazingShoesGo.com
AmazingSpecialOffers.com
AmazingTourEgypyt.com
AmazinglyPurifyingPristineDietInnovation.com
AmazoBoranUs.com
AmazoHu.com
AmazonBrandSunGating.com
AmazonCategoryUnGating.com
AmazonConnectAssistant.com
AmazonCryptoClub.com
AmazonEcza.com
AmazonFreeShopping.com
AmazonFreshSeafood.com
AmazonIndiaStore.com
AmazonInsects.com
AmazonLash.com
AmazonMedic.com
AmazonOvertHeHorizon.com
AmazonPrimeFood.com
AmazonQuan.com
AmazonRunner.com
AmazonaCrossthehorrizon.com
Amazonea.com
AmbalaJetIketi.com
AmbasWarsadopjudiorwal.com
AmbassadorEquityGroup.com
AmbassadorUs.com
AmbassadorsOfLightBook.com
AmbeAyurveda.com
AmberLightStories.com
AmberMusicProductions.com
AmberPianoMovers.com
AmbersGoodStuff.com
AmbersOuls.com
AmbessaCola.com
AmbianceLagos.com
AmbikaUniversity.com
AmbilBabysitTeRaja.com
AmbitTable.com
Ambitable.com
AmbitionBaby.com
AmbitionExpress.com
AmbitionsTacking.com
AmbitiousAgentBlueprint.com
AmbitiousHabits.com
AmbitiousRose.com
AmbizionphotographyandDesign.com
AmbonWebDesign.com
Ambpz.com
AmbraEvans.com
AmbrosOliwoNders.com
AmbulantLtd.com
Ambutl.com
AmcCouriersAc.com
AmcheGoa.com
AmdAah.com
AmdRegisterToWin.com
AmeTecenG.com
AmeTrineHost.com
AmecoLaires.com
AmegAnvik.com
AmeliaGarwood.com
AmeliaLord.com
AmeliaScAkesAndBakes.com
AmelieJunes.com
AmellInc.com
AmenAfi.com
AmenSon.com
AmendOlaMarco.com
AmenityLux.com
AmenityMgmt.com
AmenityNashville.com
AmerIiImportsLlc.com
AmerInnsOfCourt.com
AmerIods.com
AmerIonlab.com
AmerMsoHomes.com
AmerTTrade.com
AmerTonBakery.com
AmericaBaixOs.com
AmericaCelta.com
AmericaCoinXChange.com
AmericaFastEnglish.com
AmericaGameChanging.com
AmericaHonors.com
AmericaHorizon.com
AmericaOpening.com
AmericaOpenings.com
AmericaPosting.com
AmericaScupPhotos.com
AmericaSpRideLand.com
AmericanBackPage.com
AmericanBeryllium.com
AmericanContentCompany.com
AmericanEffect.com
AmericanEstateagents.com
AmericanExpressAuri.com
AmericanFlowVenezuela.com
AmericanFurnitureAndMattress.com
AmericanGrandPaw.com
AmericanHardSeltzer.com
AmericanHitMusic.com
AmericanHoneyTN.com
AmericanItemsOnly.com
AmericanKarateSchool.com
AmericanMiler.com