HuntersRenovation.com
HuntingCoast.com
HuntingForHunter.com
HuntingUnicorn.com
HuntingWinners.com
HuntingtonOlbn.com
HuntingtonOlnbn.com
HuntingtonsMS.com
HuntleyPharmaceuticals.com
HuntsDental.com
HuntsvillePage.com
HuntsvilleRibFest.com
HuohuaTai.com
HuoniaOer.com
HuoqiuMaishOu.com
HuoyanzhongChou.com
HupomeKnow.com
Hupotp.com
HupuDiaNjing.com
HurdacikarDes.com
HureNFriesland.com
HurricaneBuildersWestcolumbia.com
HurryTripp.com
HusBarb.com
HusItababyhablaespaniolo.com
HusbesIkTningStockholm.com
HuskerLandAuction.com
HuskiesHaven.com
HuskiesTuff.com
HuskyCommerce.com
HuskyDelEnergy.com
HussLasStateofmind.com
HustleBuck.com
HustleByash.com
HustleForever.com
HustleItup.com
HustlerApparelLlc.com
HustlerHeart.com
HutDug.com
HutHouseApartments.com
HutHouseBar.com
HutHouseBbq.com
HutHouseBeach.com
HutHouseHotel.com
HutchClInc.com
HuttubPros.com
HuxiTravel.com
Huxxcy.com
HuyuhuLian.com
HuzbhZb.com
HvBags.com
HvCloth.com
HvDartRouteArt.com
HvEpesWt.com
HvInternationalBusiness.com
HvNlyCorSos.com
HvTradingCompany.com
HvacSnow.com
Hvdhyy.com
Hvhsama.com
HvnyHeroes.com
HwAting.com
HwBodyworks.com
HwMillerWk.com
Hwasay.com
Hwbig.com
Hwcpzz.com
HweedFiva.com
Hwhzrk.com
Hwkjhz.com
Hwlon.com
Hwxjd.com
Hwypzz.com
Hwzsdc.com
Hxcksb.com
Hxdwlw.com
Hxdzkc.com
Hxfuapp.com
Hxgljs.com
Hxhgrz.com
Hxhmrx.com
Hxjrc.com
Hxmix.com
HxoDoors.com
Hxrhgs.com
HxsRubber.com
Hxsbw.com
HxsjjW.com
HxwdMall.com
Hxxyt.com
Hxygbc.com
Hxyhjd.com
Hxyxjf.com
HyAppyDays.com
HyDearing.com
HyFlexPac.com
HyGroteChLlc.com
HyGrowPoultry.com
HyInns.com
HyJordan.com
HyKelly.com
HyNewLife.com
HyPocheMS.com
HyPpemX.com
HyPpyFeet.com
HyPrintUsa.com
HyTechNrG.com
HyXinye.com
Hybjb.com
Hyblpf.com
HybridCryptoGrid.com
HybridTaxicabs.com
HycyhTgzs.com
HydeCountyCropInsurance.com
HydeParkBackpackers.com
HyderabadChronicle.com
HyderabadExportHouse.com
HyderabadHousePlano.com
HydraFloral.com
HydrepaIrLtd.com
HydroArtPrints.com
HydroDynamYx.com
HydroGeneTf.com
HydroHacks.com
HydroInn.com
HydroProsBackflowTest.com
HydroVegetal.com
HydroXLaboratories.com
HydroXSolutions.com
HydrogenNi.com
HydrogenNorthernireland.com
HydrogenWaterBd.com
HydrologicalExtremes.com
Hydzrj.com
HygeeWellbeing.com
HyggEstEadsHop.com
HyggaHouse.com
HyggeHomesSC.com
HygiEnzym.com
HygieneDoctors.com
HygieneGlobalService.com
HygieneRochester.com
HyhbdcN.com
Hyhqyh.com
HyipLtd.com
HyjiasHiqi.com
HyjnesHas.com
HyjqMould.com
Hykjzj.com
HylCoil.com
Hyllent.com
HyonDrugs.com
HyonIdeas.com
HyonResearch.com
HyonWeed.com
Hypdra.com
HypeBeastCowboy.com
HypeHdIsKi.com
HypeIncite.com
HypeMouse.com
HypeOver.com
HypeWholesale.com
HyperCGaming.com
HyperDabber.com
HyperJewelry.com
HyperNetShow.com
HyperbaricDr.com
HyperionApp.com
HyperionsErv.com
HypermarketingPh.com
HypermediaSmKtKr.com
Hyperopes.com
HypertextSoftware.com
HypnosEFusion.com
HypnosisMindCoach.com
HypnosisTouch.com
HypoManiacal.com
HypothyroidismDieTX.com
HypotoniaConnection.com
HyroGenWorldCongress.com
Hysbxj.com
Hyszsw.com
Hytrz.com
HyunSports.com
Hyunceo.com
HyundaIVietnams.com
HyundaibinhphuocVietnam.com
HyundaidealerrewardsCard.com
HyundaitranduyHung.com
HyundaySales.com
Hywad.com
HywbMedia.com
Hyxbxj.com
HyzabaGu.com
HzBxHkJ.com
HzHxkeji.com
HzJincheng.com
HzJings.com
HzLexiAn.com
HzQuanShui.com
HzXqzjx.com
HzYunxu.com
Hzanma.com
Hzbat.com
Hzbbw.com
Hzdgjg.com
Hzdmfs.com
Hzeta.com
Hzflh.com
Hzfor.com
HzfpgsSC.com
HzfqsC.com
HzgcyJt.com
Hzhcty.com
Hzhxwh.com
Hzhyrj.com
Hzjtdz.com
Hzklcw.com
Hzlcbj.com
HzlmBlog.com
HzmMarket.com
Hznvwa.com
Hzoull.com
HzsUrge.com
HzsaiHang.com
HzsnyJ.com
Hzsqw.com
HztaiHua.com
Hztfsy.com
Hztjtm.com
Hztzlyj.com
Hzwjn.com
Hzwokun.com
Hzwrj.com
Hzxjc.com
HzxlwyYd.com
HzytHotel.com
HzzhuOluo.com
Hzzndq.com
Hzzrl.com
HzzydC.com
IABigBoss.com
IAGreePay.com
IAMashersArmy.com
IAParte.com
IAShishGarg.com
IASonStudios.com
IAfrikaTravel.com
IAlternativeenergyInt.com
IAppsAustralia.com
IArtHall.com
IBeautifyOo.com
IBuildDesigns.com
IBuildRenovate.com
IBuyBrokenComputers.com
IConnectTheWorld.com
IControlPc.com
ICosmicLike.com
ICtrlVentures.com
IDAmanSara.com
IDRaulIciRoma.com
IDRinkPhocus.com
IDTrophy.com
IDeviceSupport.com
IDiscountQ.com
IEmpowerThroughMyPower.com
IExposeYou.com
IFinancialSystems.com
IFoundAhomeForYou.com
IGamecube.com
IHalfViewShark.com
IHardlyKnewTheGentleman.com
IHateMisty.com
IHealVitamin.com
IHeartNanaimo.com
IHerBbBenefits.com
IKyudoSeiTai.com
ILAshesBrows.com
ILCaffedElGiro.com
ILIkeWhatIsees.com
ILJadeBoer.com
ILKnowledge.com
ILMaisetseksivideot.com
ILMercatinodeiquadri.com
ILPellIstraCco.com
ILTempoElaLuna.com
ILiveDifferent.com
IMifflin.com
IPekingOpera.com
IRelieves.com
IRelieving.com
IShahed.com
ISophisticated.com
IStandforFreedom.com
ISystemized.com
ITammy.com
ITechnophilic.com
ITryCbd.com
IVoteConservatives.com
IVotedJoe.com
IaceMag.com
IaconoHairStudio.com
Iaeat.com
IagPhiladelphia.com
Iagou.com
IahnDeco.com
IakramRealtor.com
IalWaysShowLove.com
IalacWorld.com
IamAshleyPhillips.com
IamBindAas.com
IamBobbyBanks.com
IamCarlaPauliNo.com
IamChrisMiles.com
IamConcIous.com
IamDiegoCastro.com
IamImperfectMom.com
IamLikeU.com
IamLizzie.com
IamMilky.com
IamNovVel.com
IamPankajbatra.com
IamPaulRyan.com
IamSarahStewart.com
IamSoulSun.com
IamStir.com
IamSuryaTeja.com
IamUrbane.com
IamWhitneyWellness.com
IamabutTheAd.com
IamanAmorales.com
IamdjTrump.com
IamhuOji.com
IamkatKaiamYou.com
IamyourServant.com
IanAllanMagazines.com
IanMorgaNcRom.com
IanNelliYanNick.com
IanNellisBakery.com
IanParliamentMusic.com
IanPeet.com
IanRobinsonHandyman.com
IandDesign.com
IandeBuilders.com
IanusReDondo.com
Iaohe.com
IbEating.com
IbElieVeinYouLtd.com
IbEricAe.com
IbIchIJewelry.com
IbLoomVr.com
IbTShops.com
IbTheDogSales.com
IbagueCiudadRock.com
IbaiShop.com
Ibaloi.com
IbandaGold.com
IbbsHuang.com
Ibcun.com
IbehOldHerLlc.com
IbenAa.com
IberMetalAlHama.com
IberguEsa.com
IberiaMediaTV.com
IberimaWeb.com
IbertOn.com
IblComputer.com
IbnstAcArt.com
IbookLoad.com
IbooksEditor.com
IbpdAdos.com
IbrahimBurAkyurtAlan.com
IbrahimGuzey.com
IbrahimHist.com
IbrahimSrc.com
IbrahimToKSun.com
IbrfceSf.com
IbsgRandTech.com
IbtbEaring.com
IbtbEarings.com
IcFreelanceDriver.com
IcHoseJoe.com
IcMoneyClip.com
IcShore.com
IcShoreDistillingCompany.com
IcThree.com
IcaMortgage.com
IcaNping.com
IcaRodeMochila.com
IcalByrichaandsaloni.com
IcamStuff.com
IcanHelpYouHypnosis.com
IcansOiwill.com
IccLapaz.com
IccLoscabos.com
IccTabletennis.com
IceCushion.com
IceDerBi.com
IceFlims.com
IceFundingGroup.com
IceLmax.com
IcePopNation.com
IcePresidentsAv.com
IceRentEv.com
IceTherapyTr.com
IcecreamByTim.com
IcecreamCana.com
IcecreamCanaPlug.com
IcecreamRollWorld.com
IcecreamShopColumbus.com
IcecreamYouScreamAZ.com
IcelandRent.com
IcerRajerOsValencia.com
IcestIdiViviana.com
IchBinwertvoll.com
IchEckEngine.com
IchErie.com
IchHepurOn.com
IchIbanCity.com
IchUvo.com
IchiharaSharks.com
IchixFashion.com
IciCibankpersonalloanscertezza.com
IciSse.com
IciViks.com
IckyHub.com
IclPeru.com
IclimbedoutofthebellyoftheBeast.com
IcoItMan.com
IconBi.com
IconIFind.com
IconIsHoes.com
IconIstore.com
IconOnly.com
IconSiamMagnolia.com
IconicFind.com
IconicStream.com
IconistOres.com
IconsIasAcademy.com
IconsOfCleveland.com
IcrAdvisors.com
IcrcSet.com
IcsWorkstation.com
IcteMirate.com
IcuYin.com
IcyNeck.com
IdaKeats.com
IdaPaymentProcessing.com
IdaPayments.com
IdaeOlogy.com
IdahoHelps.com
IdahosBestHomeSearch.com
IdahosTateAman.com
IdahosToCkFootage.com
IdaliaWillis.com
IdbAli.com
IdcBid.com
IdcLocaWeb.com
IdcTops.com
Idcih.com
Idcum.com
IddHost.com
IddaaliTire.com
IdeAquarium.com
IdeaFleurS.com
IdeaGyra.com
IdeaJapon.com
IdeaLhubTrading.com
IdeaLitas.com
IdeaLlSteel.com
IdeaRwit.com
IdeaSforDates.com
IdeaSforThoughtfulParents.com
IdeaStandards.com
IdeaZInaction.com
IdealArtAdv.com
IdealGarageDoor.com
IdealGraphicsInc.com
IdealHomesInvestments.com
IdealHot.com
IdealHotels.com
IdealMotorsVA.com
IdealOfficefurniture.com
IdealPairs.com
IdealSeason.com
IdeasDeals.com
IdeatorMonks.com
IdeeSy.com
IdeiassaudavEis.com
IdentFi.com
IdentityCell.com
IdevStack.com
IdfcAlternatives.com
IdfcFirstSales.com
IdfgiPodcast.com
IdidrAiling.com
IdidsomethingbadtaylorSwift.com
IdietHelps.com
IdigitaLGlobal.com
IdilpAzarLama.com
IdiomAsMallorca.com
Idkng.com
IdleGu.com
IdleWoodCondo.com
IdliHouse.com
IdligaPoker.com
IdnConsultOria.com
IdnaSafe.com
IdnsRealestateScript.com
IdoAdvisors.com
IdoBrasil.com
IdoHelpers.com
IdoWeddingStyle.com
IdoWeddingStylist.com
Idofl.com
IdolLl.com
IdolesCapillaireS.com
IdoodleisketchiDraw.com
Idotx.com
Idowm.com
IdpAdvisors.com
Idratl.com
IduansJah.com
Idvty.com
Idyel.com
IeAssets.com
IeCleaningServices.com
IeSeminar.com
IeStab.com
IeWinyLc.com
IederAnders.com
IeduCcess.com
Ielpt.com
Iepbg.com
Ievop.com
Ieyde.com
IezGlobal.com
IfAbit.com
IfOneUnlocks.com
IfTravelPeru.com
IfahProperty.com
IfahovOtes.com
IfedAnDesign.com
IffiMart.com
IfipoWertech.com
Ifobia.com
IfpNetwork.com
Ifpki.com
Ifqiu.com
IfreeWebHosting.com
IfunWish.com
IgClientHelpServices.com
IgHelpSupportTeams.com
IgHelperTeam.com
IgLoveCases.com
IgMentions.com
IgOldPay.com
IgRaya.com
IgStyles.com
IgTrafficker.com
IgWonder.com
IgafaSusa.com
IgaysTube.com
IgdIrcamBalkOncu.com
IgetItIamAmerica.com
IgetTime.com
IggLtd.com
IgiamGia.com
IglesiaMonteOlivaR.com
IgnacioAlvarezAlvarez.com
IgniLighter.com
IgniteFellowship.com
IgniteYourBest.com
IgniteYourLifeEmpire.com
IgnitionLogic.com
IgnitionNorthwest.com
IgoAcres.com
IgoFarm.com
IgoStudentTravel.com
IgolfAnytime.com
Igpae.com
IgraspIndia.com
IgroPoint.com
IgrsForest.com
IgshuxUe.com
IgtCatering.com
IguaNamaste.com
Igukh.com
IguocLoud.com
IgwiloProperties.com
IhMadridOnline.com
IhTibet.com
IhakMarmara.com
IhatechelsiaHart.com
IhaveAfrica.com
IhaveBreastcancerBook.com
IhaveSwitzerland.com
IhevuEme.com
Ihgbb.com
IhiKochi.com
IhmBiliSim.com
IhmstriCordHomes.com
Ihnfl.com
Ihrcc.com
IhrkreativPartner.com
IhsanOzalp.com
IhsanTransService.com
IiRoman.com
Iibabi.com
IigtPrePressInstitute.com
IilCctv.com
IinHindi.com
IineSore.com
IiprbdVtga.com
IiskodAriaH.com
IitForce.com
IitarAt.com
Iitism.com
IitjeEcLasses.com
Iivcs.com
Iiyxw.com
IjasInternationalArticle.com
Ijbhy.com
IjeijiJh.com
IjhGame.com
IjiaLee.com
IjieQi.com
IjlalCreation.com
IjobDirect.com
IjoebidenandkamalaHarris.com
Ijooty.com
IjustneedafuckinglandingPage.com
IjustneedalandingPage.com
Ijuya.com
IjuydQs.com
IkColors.com
IkIsAp.com
IkIzlerevimkolektif.com
IkLighthouse.com
Ikadma.com
IkeStore.com
IkeTokyo.com
IkebanaIndia.com
Ikekii.com
IkiaTaxiAirport.com
IkicaBa.com
IkigoMek.com
IkilermakinatiCaret.com
IkjhkL.com
IkknhzYa.com
IkneadUmassAge.com
Iknitt.com
Ikofr.com
IkorkaDom.com
Ikraeco.com
IksdpZqa.com
IkuabeI.com
Ikunwu.com
Ilaeus.com
Ilbsuk.com
IlcicogNino.com
IledQer.com
IleeTo.com
IleriMarketing.com
IleriPromise.com
IlgazSuurunleri.com
IlhaVibe.com
IlikeBug.com
IlingUaPro.com
IlinkCommerce.com
IlinkStores.com
IllJazz.com
IllLenoIz.com
IllPoe.com
IllaBeniCio.com
IlleysKids.com
IlliaShytov.com
IllinoisMarijuanaDoctor.com
IllinoisRuleSoftHeRoad.com
IllinoisTopics.com
Illlup.com
IllogicalDictionary.com
IllumaSmile.com
IlluminatiAgentAndMembers.com
IlluminationWholesale.com
IllusionSkate.com
IllustreLocus.com
IlmioquartiEre.com
IloBay.com
IlonaSaberA.com
IloveBoth.com
IloveCrepe.com
IloveDeajah.com
IloveInTouch.com
IloveKickboxingOviedoFL.com
IloveOneWheel.com
IlovePdfEscape.com
IloveYouBody.com
IloveYouDude.com
IloveYouGelato.com
IlsEgretOdelre.com
IlsFirm.com
IlsSane.com
IlsdeFranceCouverture.com
Ilsobo.com
IlstuAma.com
IltsArena.com
IlusioDistribution.com
IlustrAtaResidencesCondos.com
IluziIdepar.com
ImAyabeAuteNaturel.com
ImCreators.com
ImEmbellished.com
ImFoot.com
ImForCompleteBeginners.com
ImHoffGroup.com
ImKereischolz.com
ImNowShad.com
ImPetsLover.com
ImPlusMedicalFacilities.com
ImPlusMedicalcenter.com
ImPreNsaPositIva.com
ImPreSosPegaSo.com
ImPresionAliza.com
ImProbLac.com
ImPuestOsLosangeles.com
ImPulsOgr.com
ImSongs.com
ImStud.com
ImTelyCare.com
ImTheoNetoGetitDone.com
ImToolsNote.com
ImaCambodia.com
ImaDigitalManager.com
ImaDigitalMarketing.com
ImaGinaSianEvents.com
ImaGodeItv.com
ImaShoes.com
ImageFormationRadar.com
ImageFxGlobal.com
ImageQabaBoard.com
ImageSbyrAndy.com
ImageYourEvent.com
ImagiAntiOnBranding.com
ImagicPhoto.com
ImaginMePay.com
ImagineGlobalPeace.com
ImagineUbi.com
ImaginingABook.com
ImahDigital.com
ImakeMoneyFast.com
ImalalOuve.com
ImamurAdenki.com
ImanElizabeth.com
ImanIdOkubo.com
ImaniFood.com
ImaniHk.com
ImaqpX.com
ImarkGift.com
ImauiNation.com
ImaxBa.com
ImaxeNgrg.com
ImboLise.com
ImbroglioInc.com
ImceoDog.com
Imcheapy.com
ImcluDE.com
ImdjTrump.com
ImeaNHello.com
Imeaa.com
ImedeBe.com
ImeiTour.com
ImelIssia.com
ImenSi.com
Imentorwomen.com
ImerPumps.com
ImexInsurance.com
ImgHangar.com
ImgMyanmar.com
ImgzHost.com
ImhaoRen.com
Imhrma.com
ImianRu.com
ImitatorI.com
Imloe.com
ImmAgeMedia.com
ImmRestaurant.com
ImmUnasTy.com
ImmagInia.com
ImmenseNovelties.com
ImmersiveQuest.com
ImmigrantCash.com
ImmigrantChallenger.com
ImmigrantExpress.com
ImmigrantFinancialServices.com
ImmigrantFunDz.com
ImmigrantNeo.com
ImmigrantNeoBank.com
ImmigrantNuGenBank.com
ImmigrantRevolution.com
ImmigrantSanctuary.com
ImmigrationLawyerPerth.com
ImmigrationMaine.com
ImmnniE.com
ImmoWallet.com
ImmobiliaReNeumann.com
ImmobiliaReitAnet.com
ImmortalHub.com
ImmortalsUnleashed.com
ImmuThailand.com
ImmulEad.com
ImmunOcalruthmunguia.com
ImmunityBoosterJuice.com
ImmunitySecretsDecoded.com
ImmyFeed.com
Imncg.com
ImnpOrtCds.com
ImnstAcArt.com
ImoAds.com
ImoBiliariaribeiraopretosp.com
ImoImageConsultants.com
ImoLaserVizi.com
Imoacg.com
Imobeli.com
ImomSavers.com
ImoveisFlorianopolis.com
ImpactEsp.com
ImpactSendIt.com
ImpactSsElectsBasketballClub.com
ImpactTheo.com
ImpactTheoryHomes.com
ImpactWithlUv.com
ImpeachBidenCommittee.com
ImpeachBidens.com
ImpeachJbpritzKer.com
ImpeachTheBidens.com
ImpeachXlvi.com
ImperdibleTV.com
ImperialDesTilAdos.com
ImperialMakeup.com
ImperialMorangOs.com
ImperialRebels.com
ImpexInter.com
ImpexaNdConsulting.com
ImplantDentalCenters.com
ImplantesDentalEsdcolWeb.com
ImplantesDentalEsdocaRg.com
Impok.com
ImportAcIonesDeluxe.com
ImportAcIonesMom.com
ImportAdoraIchAPanta.com
ImportAygana.com
ImportEii.com
ImportanceOfBeingErnest.com
ImportantBitCoin.com
ImportedHam.com
ImportedishCandles.com
ImportsList.com
ImposterSabotage.com
ImpostersSabotage.com
ImpresaCcogLienTe.com
ImpresaDipuliziaaurora.com
ImpresaDipuliziepinto.com
ImpressClinic.com
ImprimeUrxPress.com
ImproveAmazonSales.com
ImprovePortal.com
ImproveYourAmazon.com
ImprovedAccess.com
ImpulsiveSpenders.com
ImraStyle.com
ImranLawAssociates.com
ImrasItil.com
ImrasTil.com
ImssGlobal.com
Imsyx.com
ImtExam.com
ImtopVip.com
ImvPhotographYy.com
Imwfg.com
InAddrAny.com
InAideLacrosse.com
InBalanceKc.com
InBetterStores.com
InBetweenPodcast.com
InBjie.com
InBlackmarket.com
InBlueisland.com
InBoxRedIc.com
InCelsRedDit.com
InCentIvapp.com
InCubeAndCircle.com
InDeptHnrg.com
InDerRo.com
InDmeds.com
InDoCodes.com
InDoDark.com
InDoFrenchTechdev.com
InDoKKan.com
InDoMartTw.com
InDoParIwiSata.com
InDoPreBog.com
InDoTechGlobal.com
InDoWall.com
InDoWebServices.com
InDogAtGet.com
InDonKsweTrust.com
InDonaLo.com
InDongphuclongthanh.com
InDosMm.com
InEstaCart.com
InFaceLab.com
InFairhaven.com
InFdesLtd.com
InFiniEat.com
InFiniLeague.com
InFlixTech.com
InFormateEcuador.com
InGenIuosyou.com
InGenierIatecNicaIndustrial.com
InGiltereeMlAK.com
InHealthyLiving.com
InHeing.com
InHomeControls.com
InHouseMatters.com
InHouseMerchandisingDisplays.com
InKindiaLegal.com
InLuckyShop.com
InMaHfeeLins.com
InMarkBucks.com
InMidstOfTheStorm.com
InMyownskinxo.com
InNovAotearoa.com
InNovSpot.com
InNovTionHealth.com
InNovaCrowd.com
InOutdoorLife.com
InPaperCraft.com
InPostrzeszow.com
InProFood.com
InProfitOnline.com
InSearchOfBalanceMovie.com
InSecTechGroup.com
InSighLty.com
InSpIrle.com
InSpilyTics.com
InStabOostAgencyIta.com
InStandPayroll.com
InStentPayroll.com
InStrumBeats.com
InStrutAgram.com
InSumosPrimed.com
InSurAncw.com
InSurScanner.com
InSurSity.com
InTeleSolution.com
InTelyCRe.com
InTheBars.com
InTheCutLandscaping.com
InTheFieldtents.com
InTheKitchenWithEthan.com
InTheWildWorld.com
InThesIn.com
InTimCms.com
InTouchRepair.com
InTrafficker.com
InTreyO.com
InTubing.com
InVenturesInternational.com
InVerification.com
InVinciCar.com
InagaKisan.com
InamaZone.com
InangMail.com
InatWorld.com
InataNtPayroll.com
InaweEvents.com
InayatNgo.com
InboundIowa.com
InboxsErv.com
InbstaCart.com
Inbuni.com
IncCodev.com
IncHolds.com
IncIpien.com
IncaDestinations.com
IncaJungleOperaDor.com
IncaTrailGroup.com
IncanCm.com
IncarnationsDesign.com
IncestHentaiComics.com
IncestPornToons.com
IncidentForms.com
IncidentalHealth.com
IncirGen.com
InclusionBankNetwork.com
InclusionBankingNetwork.com
InclusionChallenger.com
InclusionNuGen.com
InclusiveResortVacations.com
InclusiveSeguros.com
InclusiveThemes.com
IncomeConcierge.com
IncomeOxygen.com
IncomeUrl.com
IncomesHub.com
IncontinenceExpress.com
IncorpSystems.com
IncreaseNewBusiness.com
IncredIfabStore.com
IncredibleEndeavors.com
IncredibleIbox.com
IncredibleTec.com
IncubiAtor.com
IndFive.com
IndaMotherhood.com
IndcLass.com
IndeBonus.com
IndeClic.com
IndeedBitCoin.com
IndeedCandidates.com
IndeedFr.com
IndeedIdentity.com
IndeedOs.com
IndelibleLocations.com
IndependentBaltic.com
IndependentFashiondesigner.com
IndependentPharmaEquipment.com
IndependentReseller.com
IndependentTaxicabAssociation.com
IndepthSales.com
IndexInvestingMethods.com
IndexfundsDvd.com
IndexfundsHomepage.com
IndexfundsIte.com
IndexingDollars.com
IndexingPlungers.com
IndexingStrategy.com
IndiFabv.com
IndiRyaani.com
IndiTruckR.com
IndiVarBeauty.com
IndiaBeing.com
IndiaBullsBusinessloan.com
IndiaCycle.com
IndiaDailyLife.com
IndiaDeBeaufort.com
IndiaFinSol.com
IndiaGlobalNews.com
IndiaKeswaAd.com
IndiaNavIdeoProductions.com
IndiaPropertyHome.com
IndianBusinessGroup.com
IndianClothingHeist.com
IndianCreekHighschool.com
IndianFashionmodels.com
IndianFoodUbud.com
IndianFootballOnline.com
IndianIptvBox.com
IndianNinjaWarrior.com
IndianTrendingNews.com
IndianUllu.com
IndianXxxPussy.com
IndianYpAges.com
IndianaGolfAcademy.com
IndianapolisBestMarketWholesaleDeals.com
IndianapolisHrSummit.com
IndianriverDermatology.com
IndianriverGymnastics.com
IndieArtistMastermind.com
IndieArtsAcademy.com
IndieFields.com
IndieFilmAssociation.com
IndiePenStires.com
IndiePrincessParties.com
IndigenousOringInalClothing.com
IndigoJuice.com
IndigoLdcAre.com
IndigoMentalClub.com
IndigoOnAirlines.com
IndigoOtaku.com
IndividualHealthCenter.com
Indltex.com
IndonesiaDinaMis.com
IndonesiaDream.com
IndonesianPotato.com
IndoreTaxiIndore.com
IndraCasino.com
IndulgeMexico.com
IndulgeUsa.com
IndusRecruitment.com
IndusSuperFoods.com
IndusTralHighVoltage.com
IndusTriAsanaNos.com
IndusTrieb.com
IndusTrikliniken.com
IndustrialDecorLighting.com
IndustrialEnterTeiment.com
IndustrialMachiningServices.com
IndustrialMpesInc.com
IndustrialServiceSco.com
IndustryContracting.com
IndyEddyStories.com
IndyGrub.com
IndyToy.com
IndyWcr.com
IndyWeldedArt.com
IneddOw.com
IneedGay.com
IneedHelpRtm.com
InerShe.com
Inerem.com
InesStatTi.com
Inevt.com
InexBodyShop.com
Infamouss.com
InfantEedilCem.com
InfantIlOnline.com
InfantImagery.com
InfantJesusMvk.com
InfantSlide.com
InfantSwimComInstructor.com
InfectIsHield.com
InfectedTds.com
InfernalOdyssey.com
InfiCredit.com
InfiIndia.com
InfiernogamesStudio.com
InfinItSettlement.com
InfinTySettlement.com
InfiniteApr.com
InfiniteClothingNJ.com
InfiniteDeck.com
InfiniteFileSource.com
InfiniteMediaLlc.com
InfinitelyUnited.com
InfinitiKey.com
InfinitiKw.com
InfinityChildcareCenters.com
InfinityGlowBeauty.com
InfinityLoopMusic.com
InfinityRelaxing.com
InfinitySetTelment.com
InfinitySetTement.com
InfinitySetTlment.com
InfinitySportsConsulting.com
InfinityTimekeepers.com
InfinitysSettlement.com
Infinitysetlement.com
InfjPodcast.com
InfladeRm.com
InfluChic.com
InfluEnciaT.com
InfluFashion.com
InfluFood.com
InfluParty.com
InfluWire.com
InflueRo.com
InfluenceAndAffiliate.com
InfluenceYourMood.com
InfluencerGlue.com
InfoArcht.com
InfoBharat.com
InfoBizNesMan.com
InfoColorSv.com
InfoCrakken.com
InfoDecorator.com
InfoInsightAnalytIca.com
InfoKracken.com
InfoLibreTarija.com
InfoLinkItSolutions.com
InfoLogicInfluencer.com
InfoPatroCiniOs.com
InfoPropertyDeals.com
InfoShypoTheQue.com
InfoSimpleDelight.com
InfoSnotAire.com
InfoSoftTechnologySolutions.com
InfoTrAjet.com
InfoTrasLoco.com
InfoXero.com
Infoeds.com
InformAticoprontointervento.com
InformAzionivendotg.com
InformaticaGerardVidal.com
InformationAllergy.com
InformationBubble.com
InformationOfBollywood.com
InformationSecurityLlc.com
InfosAvocat.com
InfosCollege.com
InfosPret.com
InfosysCco.com
InfosysGlobalBpo.com
InfraTiger.com
InfringementHelpForm.com
InfusionDeMandarinE.com
IngMirror.com
IngWine.com
IngeBongo.com
IngeDatos.com
IngeNvest.com
IngebOlsrl.com
IngeniousGameCreations.com
IngesFashionsStore.com
IngiUse.com
IngleScAbos.com
InglenookGirl.com
InglewoodEscape.com
IngridDianasThoughts.com
IngridSellIck.com
IngrupoinmobiliArio.com
IngtonOm.com
InhaitUn.com
InhyipInvest.com
IniGadget.com
IniQuirer.com
IniaConsultOria.com
InigoPerezSevillaNo.com
InitApparel.com
InitialWord.com
InitiateUDpate.com
IniuMama.com
InjuCorp.com
InjujKmw.com
InjuryAdvocateGroup.com
InkAndStamp.com
InkHoleDesign.com
InkIlapkirtasiye.com
InkStitchHelp.com
InkaStet.com
InkaVideos.com
InkaniTy.com
InkedApparelCompany.com
InkedIncorporated.com
InkhoC.com
InkleStudio.com
InkyDayZ.com
InlandEmpireFresh.com
InlandEmpireSeniors.com
InlineMarine.com
InlitAcademy.com
InloveWithDiamondStore.com
InminhHy.com
InmobCanArias.com
InmobIperu.com
InmobiliariacinCom.com
InmyCalm.com
InmyEastereggs.com
InnFestival.com
InnFlorals.com
InnWhen.com
InnatTheSpanishSteps.com
InneRegineEring.com
InnerBleach.com
InnerCalgary.com
InnerInception.com
InnerPeaceCrystals.com
InnerQiFlow.com
InnerWomxn.com
InnerlightImaging.com
InnoMalin.com
Innolib.com
InnotecKa.com
InnoteckaPharma.com
InnovacionmascomunicaCion.com
InnovateKerry.com
InnovationBuffs.com
InnovationCharm.com
InnovationsFabric.com
InnovationsSport.com
InnovativeAbaSolutions.com
InnovativeChristian.com
InnovativeCoron.com
InnovativeDigitalAssociates.com
InnovativeHomeStagingAndDesign.com
InnovativeOnlineAgency.com
InnovatorShop.com
InnterSect.com
InominIA.com
Inorbi.com
Inoritz.com
InoryasoftpvtLtd.com
InoveSorriso.com
InoxDuckHang.com
InpadeBolivia.com
InpolTec.com
Inprn.com
InquerCu.com
InquisitiveTech.com
InrRunnersShoes.com
Inrtb.com
InsExpo.com
InsLeopeCy.com
InsLoop.com
InsPomug.com
InsRow.com
InsTaBlueticks.com
InsTaBuyIta.com
InsTaCatRt.com
InsTaCategoriesList.com
InsTaKawaiI.com
InsTaQuickApp.com
InsTaZebra.com
InsTakolay.com
InsTalyZr.com
InsTamtPayroll.com
InsTatowApp.com
InsTechGram.com
InsTntPayroll.com
InsUlDrive.com
InsYta.com
InsYtacArt.com
Insgu.com
Inshae.com
InsiPreHousehold.com
InsideMarketingCareers.com
InsideResult.com
InsideYourLife.com
InsightFcTory.com
InsightNewyorkcity.com
InsightfulAsia.com
InsightsAdvisers.com
InskScape.com
InsomniaBrain.com
InsomniaIssues.com
InspIrasDevelopment.com
InspectIthi.com
InspectionGuarantee.com
InspectorCareers.com
InspectorNocturnO.com
InsperVaFit.com
InspiraCbd.com
InspiraXt.com
InspirandipeDia.com
InspirationBall.com
InspirationFromTheSpirit.com
InspirationPlease.com
InspirationalBall.com
InspirationalIntelligence.com
InspireEmpowerAct.com
InspireEventConsultancy.com
InspireFromAnywhere.com
InspireKarma.com
InspireNewGen.com
InspireYoo.com
InspiredBenefitsGroup.com
InspiredCreationCo.com
InspiredHarvestNJ.com
InspiredInception.com
InstAbbReeves.com
InstAfuelpromozioni.com
InstAgrMCenter.com
InstAgraMcs.com
InstAgramGem.com
InstAgramHelpComplaint.com
InstAgramhesabisatinal.com
InstIntoInDomable.com
InstItuToImt.com
InstItuToJohnlennon.com
InstItutperledecoton.com
InstYaCart.com
InstalAdoresDegasBarcelona.com
Instalers.com
InstallDevices.com
InstallerMate.com
InstallingShingles.com
InstantBeauteaLaMaison.com
InstantBj.com
InstantEquityProperties.com
InstantImprintSbelred.com
InstantLeverageInvesting.com
InstantLifeImprovement.com
InstantNoFaxPaydayLoans.com
InstantPaTroll.com
InstantPayRill.com
InstantPayRol.com
InstantPayrollL.com
InstantSdefIlles.com
InstantSeoChecker.com
InstantTrafficProfits.com
InstantpyRoll.com
InstitutionalWork.com
InstitutoeducativodedesarrolloIntegral.com
InstoresEverywhere.com
InstructionalTechnologists.com
InstrumentTrolleys.com
InstsNtPayroll.com
InstyleUnlimited.com
InsulationRemovalPro.com
InsultOsaurus.com
InsuranceAgencyCharleston.com
InsuranceAgencyWinnipeg.com
InsuranceBankService.com
InsuranceChild.com
InsuranceGmc.com
InsuranceMadeDigital.com
InsuranceMarketCenter.com
InsurancePerdiems.com
InsurancePortalJo.com
InsuranceTaxGp.com
InsuranceagentBrunswickOH.com
InsuranceagentMarketer.com
InsuranceagentNashville.com
InsurancecoverageBaltimore.com
InsuredLight.com
InsuredYourVehicle.com
IntEbiom.com
IntEgRacionesFamiliares.com
IntEkgrup.com
IntEliProd.com
IntElliRoofs.com
IntExaca.com
IntLosTool.com
IntMarInc.com
IntUigtMarket.com
IntangibleFund.com
IntangibleRiches.com
InteIrmaTic.com
InteLitraV.com
IntegerInnovations.com
IntegraCrossings.com
IntegraEnlace.com
IntegralAbogDos.com
IntegralAbogados.com
IntegrateAccess.com
IntegratedBioPhotonics.com
IntegratedFamilySol.com
IntegratedSurvival.com
IntegratingDynamicSystems.com
IntegrativeCoachingInstitute.com
IntegrativeHealingArtCenter.com
IntegrityHomeProducts.com
IntegrityRecreationVehicleInspections.com
IntegrityVintage.com
IntekStudios.com
Intekcs.com
IntelLifestyle.com
IntelLozsHoppyZ.com
IntelMes.com
IntellectImports.com
IntellectPeDia.com
IntelligentHealthSystem.com
IntelligentWebContent.com
IntelligentWoolCoat.com
IntentExtraction.com
IntentionalAdulterationGuy.com
IntentionalFashionLlc.com
InterAfricaCapital.com
InterBoroSolutions.com
InterCeptLiteLock.com
InterDimsPress.com
InterEce.com
InterGeneRacial.com
InterLen.com
InterMarketConnections.com
InterMedicalcenter.com
InterOwllms.com
InterPartnersBg.com
InterPriseFacilitation.com
InterVensys.com
InterVetPharma.com
InteractHive.com
InteractMm.com
InteractiveAll.com
InteractiveDeepDive.com
InteractiveIndiVisuals.com
InterchangeUc.com
IntercommunalitesDuGrandParis.com
InterestingPrint.com
InterfacesCreatives.com
InterfaithTours.com
InteriorMastersLlc.com
InteriorPhotographyGroup.com
InteriorWrapping.com
InteriordesignersBoise.com
InteriordesignersCharlotte.com
InternAccelerator.com
InternExing.com
InternalEvaluation.com
InternalEvaluations.com
InternalTides.com
InternationalAll.com
InternationalBusinessCompaniesAct.com
InternationalFestivalOfSpeed.com
InternationalFragranceAward.com
InternationalHealthSchool.com
InternationalLivingMagazine.com
InternationalPropertyBank.com
InternationalTattooClub.com
InternationalTicketBrokers.com
InternationalWoodSuppliers.com
InternetLoveWithAffair.com
InternetOfGreenThings.com
InternetOfSteamThings.com
InternetOfThingsFuture.com
InternetPosLovi.com
InternetPursuit.com
InternetRumahKu.com
InternetYeniabonelik.com
InterracialDatingApp.com
InterracialDatingWorldwide.com
Interruptedly.com
InterviewClip.com
InterviewDigital.com
InterviewNotebook.com
IntesAll.com
IntimaLove.com
IntimacyCoordinatorEducation.com
IntimateReserve.com
IntimeEquity.com
IntimeJazz.com
IntimeLoise.com
IntinHhoa.com
Intkx.com
IntlDisliTequilas.com
IntlVest.com
Intmuy.com
IntoHomesProperties.com
IntokeX.com
IntownRentalGroup.com
IntraCradle.com
IntraCyst.com
IntraMeeting.com
IntraTester.com
IntracoastalHomeRepair.com
IntramuralRecLeague.com
IntriEct.com
IntrinsicMedSpa.com
IntroCaribbeanCupid.com
IntroChristianCupid.com
IntroductionCaribbeanCupid.com
IntroductionChristianCupid.com
IntruderDetectionServices.com
IntuEnglish.com
IntuitMarkIt.com
IntuitMoRket.com
IntuitQuickBooksNotification.com
IntuitUitMarket.com
IntuitionInsolite.com
IntuitiveClothing.com
InuitAkaHiro.com
InunobMen.com
Inunw.com
Inusif.com
InutuItMarket.com
InvInCtion.com
InvaluAbel.com
Invaluavle.com
InveScanner.com
InventiveBots.com
InventoryForHome.com
InventoryValu.com
InvestGlobalLoans.com
InvestIndocomsabedoria.com
InvestIreinMarocCo.com
InvestIsSementWeb.com
InvestKogi.com
InvestMintGroup.com
InvestRoMega.com
InvestSnail.com
InvestTraffic.com
InvestWithKingsEnterprises.com
InvestWithtgRl.com
InvestingByMillennials.com
InvestingCriteria.com
InvestingPride.com
InvestmentCriterion.com
InvestmentFacility.com
InvestorIp.com
InvestorPartnerWanted.com
InvestorProtocol.com
InvestorsComputer.com
InvestorsNinja.com
InviWatch.com
InvictusBambu.com
InvlaFamosaEmily.com
Invoicings.com
InvokeRsTournament.com
Inwns.com
InxCustomer.com
InyFinn.com
InyenTs.com
InyouBrasil.com
InyouBrazil.com
InyourFaceFeedback.com
InyourgrocersFreezer.com
InzpirationgoneCrazy.com
IoEduction.com
IoMailing.com
IoMslingMeet.com
IoNetAL.com
IoOptions.com
IoTimer.com
IoWatching.com
IoXnews.com
IoanciOcani.com
Iocao.com
Iodepl.com
IoehIsBs.com
Ioicom.com
IonMotorSports.com
IonTransit.com
IonaDs.com
IonaIreWear.com
IonamAchinskIy.com
IoneXtech.com
IoniaGroup.com
IoniaRestaurant.com
IoniaRestaurants.com
IoniaTaverna.com
IonianRestaurant.com
IonianRestaurants.com
IonianTaverna.com
Ioriens.com
IoscAid.com
IoskedUla.com
IotCoolSpot.com
IotCurrent.com
Iothlc.com
Iotlau.com
Iouhso.com
Ioulm.com
IowessApp.com
IoxwpEo.com
IpArmChina.com
IpChickEb.com
IpChronos.com
IpFsxingyun.com
IpPanChenKo.com
IpSmarter.com
IpacForum.com
IpadpHoneSwipe.com
Ipahw.com
IpalyerTV.com
IpaySystems.com
IpayaC.com
Ipbajar.com
IpcpxAi.com
IperRo.com
IpfmAll.com
IphOneHelping.com
IphOneOz.com
IphOneTheDung.com
IphOnees.com
IphOrne.com
IphinEJack.com
Ipker.com
IplCoin.com
IpnosiSensorialE.com
IpoMexico.com
IpowerOutlet.com
IprUritidifede.com
IprbdVtg.com
IprbdVtga.com
IprbdVtgb.com
IprbdVtgc.com
IprbdVtgd.com
IprbdVtge.com
IprbdVtgf.com
IprbdVtgg.com
IprbdVtgh.com
IprbdVtgi.com
IprbdVtgj.com
IprbdVtgk.com
IprbdVtgl.com
IprbdVtgm.com
IprbdVtgn.com
IprbdVtgo.com
IprbdVtgp.com
IprbdVtgq.com
IprbdVtgr.com
IprbdVtgs.com
IprbdVtgt.com
IprbdVtgu.com
IprbdVtgv.com
IprbdVtgw.com
IprbdVtgx.com
IprbdVtgy.com
IprbdVtgz.com
IpressApparel.com
IptViMedia.com
IptechSummit.com
IptvView.com
Ipubbx.com
IpvoipvideodoorentrySystem.com
IqFitnessRevolution.com
Iqhsa.com
Iqorel.com
IqpjjG.com
IqqquN.com
Iqqxb.com
IqraOpenAcademy.com
Iqwala.com
IrCable.com
IrFarmers.com
IrFarmes.com
IrIchIndia.com